data_glycine
_audit_creation_date              2024-09-25
_audit_creation_method            'Materials Studio'
_symmetry_space_group_name_H-M    'P1'
_symmetry_Int_Tables_number       1
_symmetry_cell_setting            triclinic
loop_
_symmetry_equiv_pos_as_xyz
  x,y,z
_cell_length_a                    10.1870
_cell_length_b                    12.5480
_cell_length_c                    10.7694
_cell_angle_alpha                 90.0000
_cell_angle_beta                  113.1900
_cell_angle_gamma                 90.0000
loop_
_atom_site_label
_atom_site_type_symbol
_atom_site_fract_x
_atom_site_fract_y
_atom_site_fract_z
_atom_site_U_iso_or_equiv
_atom_site_adp_type
_atom_site_occupancy
O1     O    -0.04632   0.20495   0.29870   0.02589  Uani   1.00
N2     N     0.17512   0.14080   0.11865   0.02092  Uani   1.00
H3     H     0.17450   0.15050   0.03550   0.02900  Uiso   1.00
H4     H     0.26000   0.16200   0.17650   0.02900  Uiso   1.00
H5     H     0.17000   0.07100   0.13300   0.03400  Uiso   1.00
C6     C     0.06676   0.19203   0.28051   0.01850  Uani   1.00
O7     O     0.18870   0.17908   0.37137   0.02984  Uani   1.00
C8     C     0.05575   0.19709   0.13496   0.02194  Uani   1.00
H9     H     0.06150   0.26900   0.11100   0.03500  Uiso   1.00
H10    H    -0.03150   0.16600   0.07150   0.02900  Uiso   1.00
O11    O     0.54632   0.45495   0.20130   0.02589  Uani   1.00
N12    N     0.32488   0.39080   0.38135   0.02092  Uani   1.00
H13    H     0.32550   0.40050   0.46450   0.02900  Uiso   1.00
H14    H     0.24000   0.41200   0.32350   0.02900  Uiso   1.00
H15    H     0.33000   0.32100   0.36700   0.03400  Uiso   1.00
C16    C     0.43324   0.44202   0.21949   0.01850  Uani   1.00
O17    O     0.31130   0.42908   0.12863   0.02984  Uani   1.00
C18    C     0.44425   0.44709   0.36504   0.02194  Uani   1.00
H19    H     0.43850   0.51900   0.38900   0.03500  Uiso   1.00
H20    H     0.53150   0.41600   0.42850   0.02900  Uiso   1.00
O21    O     0.45368   0.20495   0.29870   0.02589  Uani   1.00
N22    N     0.67512   0.14080   0.11865   0.02092  Uani   1.00
H23    H     0.67450   0.15050   0.03550   0.02900  Uiso   1.00
H24    H     0.76000   0.16200   0.17650   0.02900  Uiso   1.00
H25    H     0.67000   0.07100   0.13300   0.03400  Uiso   1.00
C26    C     0.56676   0.19203   0.28051   0.01850  Uani   1.00
O27    O     0.68870   0.17908   0.37137   0.02984  Uani   1.00
C28    C     0.55575   0.19709   0.13496   0.02194  Uani   1.00
H29    H     0.56150   0.26900   0.11100   0.03500  Uiso   1.00
H30    H     0.46850   0.16600   0.07150   0.02900  Uiso   1.00
O31    O     1.04632   0.45495   0.20130   0.02589  Uani   1.00
N32    N     0.82488   0.39080   0.38135   0.02092  Uani   1.00
H33    H     0.82550   0.40050   0.46450   0.02900  Uiso   1.00
H34    H     0.74000   0.41200   0.32350   0.02900  Uiso   1.00
H35    H     0.83000   0.32100   0.36700   0.03400  Uiso   1.00
C36    C     0.93324   0.44202   0.21949   0.01850  Uani   1.00
O37    O     0.81130   0.42908   0.12863   0.02984  Uani   1.00
C38    C     0.94425   0.44709   0.36504   0.02194  Uani   1.00
H39    H     0.93850   0.51900   0.38900   0.03500  Uiso   1.00
H40    H     1.03150   0.41600   0.42850   0.02900  Uiso   1.00
O41    O    -0.04632   0.70495   0.29870   0.02589  Uani   1.00
N42    N     0.17512   0.64080   0.11865   0.02092  Uani   1.00
H43    H     0.17450   0.65050   0.03550   0.02900  Uiso   1.00
H44    H     0.26000   0.66200   0.17650   0.02900  Uiso   1.00
H45    H     0.17000   0.57100   0.13300   0.03400  Uiso   1.00
C46    C     0.06676   0.69202   0.28051   0.01850  Uani   1.00
O47    O     0.18870   0.67907   0.37137   0.02984  Uani   1.00
C48    C     0.05575   0.69709   0.13496   0.02194  Uani   1.00
H49    H     0.06150   0.76900   0.11100   0.03500  Uiso   1.00
H50    H    -0.03150   0.66600   0.07150   0.02900  Uiso   1.00
O51    O     0.54632   0.95495   0.20130   0.02589  Uani   1.00
N52    N     0.32488   0.89080   0.38135   0.02092  Uani   1.00
H53    H     0.32550   0.90050   0.46450   0.02900  Uiso   1.00
H54    H     0.24000   0.91200   0.32350   0.02900  Uiso   1.00
H55    H     0.33000   0.82100   0.36700   0.03400  Uiso   1.00
C56    C     0.43324   0.94202   0.21949   0.01850  Uani   1.00
O57    O     0.31130   0.92907   0.12863   0.02984  Uani   1.00
C58    C     0.44425   0.94709   0.36504   0.02194  Uani   1.00
H59    H     0.43850   1.01900   0.38900   0.03500  Uiso   1.00
H60    H     0.53150   0.91600   0.42850   0.02900  Uiso   1.00
O61    O     0.45368   0.70495   0.29870   0.02589  Uani   1.00
N62    N     0.67512   0.64080   0.11865   0.02092  Uani   1.00
H63    H     0.67450   0.65050   0.03550   0.02900  Uiso   1.00
H64    H     0.76000   0.66200   0.17650   0.02900  Uiso   1.00
H65    H     0.67000   0.57100   0.13300   0.03400  Uiso   1.00
C66    C     0.56676   0.69202   0.28051   0.01850  Uani   1.00
O67    O     0.68870   0.67907   0.37137   0.02984  Uani   1.00
C68    C     0.55575   0.69709   0.13496   0.02194  Uani   1.00
H69    H     0.56150   0.76900   0.11100   0.03500  Uiso   1.00
H70    H     0.46850   0.66600   0.07150   0.02900  Uiso   1.00
O71    O     1.04632   0.95495   0.20130   0.02589  Uani   1.00
N72    N     0.82488   0.89080   0.38135   0.02092  Uani   1.00
H73    H     0.82550   0.90050   0.46450   0.02900  Uiso   1.00
H74    H     0.74000   0.91200   0.32350   0.02900  Uiso   1.00
H75    H     0.83000   0.82100   0.36700   0.03400  Uiso   1.00
C76    C     0.93324   0.94202   0.21949   0.01850  Uani   1.00
O77    O     0.81130   0.92907   0.12863   0.02984  Uani   1.00
C78    C     0.94425   0.94709   0.36504   0.02194  Uani   1.00
H79    H     0.93850   1.01900   0.38900   0.03500  Uiso   1.00
H80    H     1.03150   0.91600   0.42850   0.02900  Uiso   1.00
O81    O    -0.04632   0.20495   0.79870   0.02589  Uani   1.00
N82    N     0.17512   0.14080   0.61865   0.02092  Uani   1.00
H83    H     0.17450   0.15050   0.53550   0.02900  Uiso   1.00
H84    H     0.26000   0.16200   0.67650   0.02900  Uiso   1.00
H85    H     0.17000   0.07100   0.63300   0.03400  Uiso   1.00
C86    C     0.06676   0.19203   0.78051   0.01850  Uani   1.00
O87    O     0.18870   0.17908   0.87137   0.02984  Uani   1.00
C88    C     0.05575   0.19709   0.63496   0.02194  Uani   1.00
H89    H     0.06150   0.26900   0.61100   0.03500  Uiso   1.00
H90    H    -0.03150   0.16600   0.57150   0.02900  Uiso   1.00
O91    O     0.54632   0.45495   0.70130   0.02589  Uani   1.00
N92    N     0.32488   0.39080   0.88135   0.02092  Uani   1.00
H93    H     0.32550   0.40050   0.96450   0.02900  Uiso   1.00
H94    H     0.24000   0.41200   0.82350   0.02900  Uiso   1.00
H95    H     0.33000   0.32100   0.86700   0.03400  Uiso   1.00
C96    C     0.43324   0.44202   0.71949   0.01850  Uani   1.00
O97    O     0.31130   0.42908   0.62863   0.02984  Uani   1.00
C98    C     0.44425   0.44709   0.86504   0.02194  Uani   1.00
H99    H     0.43850   0.51900   0.88900   0.03500  Uiso   1.00
H100   H     0.53150   0.41600   0.92850   0.02900  Uiso   1.00
O101   O     0.45368   0.20495   0.79870   0.02589  Uani   1.00
N102   N     0.67512   0.14080   0.61865   0.02092  Uani   1.00
H103   H     0.67450   0.15050   0.53550   0.02900  Uiso   1.00
H104   H     0.76000   0.16200   0.67650   0.02900  Uiso   1.00
H105   H     0.67000   0.07100   0.63300   0.03400  Uiso   1.00
C106   C     0.56676   0.19203   0.78051   0.01850  Uani   1.00
O107   O     0.68870   0.17908   0.87137   0.02984  Uani   1.00
C108   C     0.55575   0.19709   0.63496   0.02194  Uani   1.00
H109   H     0.56150   0.26900   0.61100   0.03500  Uiso   1.00
H110   H     0.46850   0.16600   0.57150   0.02900  Uiso   1.00
O111   O     1.04632   0.45495   0.70130   0.02589  Uani   1.00
N112   N     0.82488   0.39080   0.88135   0.02092  Uani   1.00
H113   H     0.82550   0.40050   0.96450   0.02900  Uiso   1.00
H114   H     0.74000   0.41200   0.82350   0.02900  Uiso   1.00
H115   H     0.83000   0.32100   0.86700   0.03400  Uiso   1.00
C116   C     0.93324   0.44202   0.71949   0.01850  Uani   1.00
O117   O     0.81130   0.42908   0.62863   0.02984  Uani   1.00
C118   C     0.94425   0.44709   0.86504   0.02194  Uani   1.00
H119   H     0.93850   0.51900   0.88900   0.03500  Uiso   1.00
H120   H     1.03150   0.41600   0.92850   0.02900  Uiso   1.00
O121   O    -0.04632   0.70495   0.79870   0.02589  Uani   1.00
N122   N     0.17512   0.64080   0.61865   0.02092  Uani   1.00
H123   H     0.17450   0.65050   0.53550   0.02900  Uiso   1.00
H124   H     0.26000   0.66200   0.67650   0.02900  Uiso   1.00
H125   H     0.17000   0.57100   0.63300   0.03400  Uiso   1.00
C126   C     0.06676   0.69202   0.78051   0.01850  Uani   1.00
O127   O     0.18870   0.67907   0.87137   0.02984  Uani   1.00
C128   C     0.05575   0.69709   0.63496   0.02194  Uani   1.00
H129   H     0.06150   0.76900   0.61100   0.03500  Uiso   1.00
H130   H    -0.03150   0.66600   0.57150   0.02900  Uiso   1.00
O131   O     0.54632   0.95495   0.70130   0.02589  Uani   1.00
N132   N     0.32488   0.89080   0.88135   0.02092  Uani   1.00
H133   H     0.32550   0.90050   0.96450   0.02900  Uiso   1.00
H134   H     0.24000   0.91200   0.82350   0.02900  Uiso   1.00
H135   H     0.33000   0.82100   0.86700   0.03400  Uiso   1.00
C136   C     0.43324   0.94202   0.71949   0.01850  Uani   1.00
O137   O     0.31130   0.92907   0.62863   0.02984  Uani   1.00
C138   C     0.44425   0.94709   0.86504   0.02194  Uani   1.00
H139   H     0.43850   1.01900   0.88900   0.03500  Uiso   1.00
H140   H     0.53150   0.91600   0.92850   0.02900  Uiso   1.00
O141   O     0.45368   0.70495   0.79870   0.02589  Uani   1.00
N142   N     0.67512   0.64080   0.61865   0.02092  Uani   1.00
H143   H     0.67450   0.65050   0.53550   0.02900  Uiso   1.00
H144   H     0.76000   0.66200   0.67650   0.02900  Uiso   1.00
H145   H     0.67000   0.57100   0.63300   0.03400  Uiso   1.00
C146   C     0.56676   0.69202   0.78051   0.01850  Uani   1.00
O147   O     0.68870   0.67907   0.87137   0.02984  Uani   1.00
C148   C     0.55575   0.69709   0.63496   0.02194  Uani   1.00
H149   H     0.56150   0.76900   0.61100   0.03500  Uiso   1.00
H150   H     0.46850   0.66600   0.57150   0.02900  Uiso   1.00
O151   O     1.04632   0.95495   0.70130   0.02589  Uani   1.00
N152   N     0.82488   0.89080   0.88135   0.02092  Uani   1.00
H153   H     0.82550   0.90050   0.96450   0.02900  Uiso   1.00
H154   H     0.74000   0.91200   0.82350   0.02900  Uiso   1.00
H155   H     0.83000   0.82100   0.86700   0.03400  Uiso   1.00
C156   C     0.93324   0.94202   0.71949   0.01850  Uani   1.00
O157   O     0.81130   0.92907   0.62863   0.02984  Uani   1.00
C158   C     0.94425   0.94709   0.86504   0.02194  Uani   1.00
H159   H     0.93850   1.01900   0.88900   0.03500  Uiso   1.00
H160   H     1.03150   0.91600   0.92850   0.02900  Uiso   1.00
loop_
_atom_site_aniso_label
_atom_site_aniso_U_11
_atom_site_aniso_U_22
_atom_site_aniso_U_33
_atom_site_aniso_U_12
_atom_site_aniso_U_13
_atom_site_aniso_U_23
O1        0.02340   0.03260   0.02680   0.00000   0.01540  -0.00380
N2        0.02180   0.02720   0.01510   0.00260   0.00870   0.00000
C6        0.02040   0.02100   0.01630  -0.00230   0.00960  -0.00140
O7        0.02080   0.05320   0.01560  -0.00290   0.00725   0.00070
C8        0.02320   0.02860   0.01510   0.00550   0.00870   0.00230
O11       0.02340   0.03260   0.02680   0.00000   0.01540   0.00380
N12       0.02180   0.02720   0.01510  -0.00260   0.00870   0.00000
C16       0.02040   0.02100   0.01630   0.00230   0.00960   0.00140
O17       0.02080   0.05320   0.01560   0.00290   0.00725  -0.00070
C18       0.02320   0.02860   0.01510  -0.00550   0.00870  -0.00230
O21       0.02340   0.03260   0.02680   0.00000   0.01540  -0.00380
N22       0.02180   0.02720   0.01510   0.00260   0.00870   0.00000
C26       0.02040   0.02100   0.01630  -0.00230   0.00960  -0.00140
O27       0.02080   0.05320   0.01560  -0.00290   0.00725   0.00070
C28       0.02320   0.02860   0.01510   0.00550   0.00870   0.00230
O31       0.02340   0.03260   0.02680   0.00000   0.01540   0.00380
N32       0.02180   0.02720   0.01510  -0.00260   0.00870   0.00000
C36       0.02040   0.02100   0.01630   0.00230   0.00960   0.00140
O37       0.02080   0.05320   0.01560   0.00290   0.00725  -0.00070
C38       0.02320   0.02860   0.01510  -0.00550   0.00870  -0.00230
O41       0.02340   0.03260   0.02680   0.00000   0.01540  -0.00380
N42       0.02180   0.02720   0.01510   0.00260   0.00870   0.00000
C46       0.02040   0.02100   0.01630  -0.00230   0.00960  -0.00140
O47       0.02080   0.05320   0.01560  -0.00290   0.00725   0.00070
C48       0.02320   0.02860   0.01510   0.00550   0.00870   0.00230
O51       0.02340   0.03260   0.02680   0.00000   0.01540   0.00380
N52       0.02180   0.02720   0.01510  -0.00260   0.00870   0.00000
C56       0.02040   0.02100   0.01630   0.00230   0.00960   0.00140
O57       0.02080   0.05320   0.01560   0.00290   0.00725  -0.00070
C58       0.02320   0.02860   0.01510  -0.00550   0.00870  -0.00230
O61       0.02340   0.03260   0.02680   0.00000   0.01540  -0.00380
N62       0.02180   0.02720   0.01510   0.00260   0.00870   0.00000
C66       0.02040   0.02100   0.01630  -0.00230   0.00960  -0.00140
O67       0.02080   0.05320   0.01560  -0.00290   0.00725   0.00070
C68       0.02320   0.02860   0.01510   0.00550   0.00870   0.00230
O71       0.02340   0.03260   0.02680   0.00000   0.01540   0.00380
N72       0.02180   0.02720   0.01510  -0.00260   0.00870   0.00000
C76       0.02040   0.02100   0.01630   0.00230   0.00960   0.00140
O77       0.02080   0.05320   0.01560   0.00290   0.00725  -0.00070
C78       0.02320   0.02860   0.01510  -0.00550   0.00870  -0.00230
O81       0.02340   0.03260   0.02680   0.00000   0.01540  -0.00380
N82       0.02180   0.02720   0.01510   0.00260   0.00870   0.00000
C86       0.02040   0.02100   0.01630  -0.00230   0.00960  -0.00140
O87       0.02080   0.05320   0.01560  -0.00290   0.00725   0.00070
C88       0.02320   0.02860   0.01510   0.00550   0.00870   0.00230
O91       0.02340   0.03260   0.02680   0.00000   0.01540   0.00380
N92       0.02180   0.02720   0.01510  -0.00260   0.00870   0.00000
C96       0.02040   0.02100   0.01630   0.00230   0.00960   0.00140
O97       0.02080   0.05320   0.01560   0.00290   0.00725  -0.00070
C98       0.02320   0.02860   0.01510  -0.00550   0.00870  -0.00230
O101      0.02340   0.03260   0.02680   0.00000   0.01540  -0.00380
N102      0.02180   0.02720   0.01510   0.00260   0.00870   0.00000
C106      0.02040   0.02100   0.01630  -0.00230   0.00960  -0.00140
O107      0.02080   0.05320   0.01560  -0.00290   0.00725   0.00070
C108      0.02320   0.02860   0.01510   0.00550   0.00870   0.00230
O111      0.02340   0.03260   0.02680   0.00000   0.01540   0.00380
N112      0.02180   0.02720   0.01510  -0.00260   0.00870   0.00000
C116      0.02040   0.02100   0.01630   0.00230   0.00960   0.00140
O117      0.02080   0.05320   0.01560   0.00290   0.00725  -0.00070
C118      0.02320   0.02860   0.01510  -0.00550   0.00870  -0.00230
O121      0.02340   0.03260   0.02680   0.00000   0.01540  -0.00380
N122      0.02180   0.02720   0.01510   0.00260   0.00870   0.00000
C126      0.02040   0.02100   0.01630  -0.00230   0.00960  -0.00140
O127      0.02080   0.05320   0.01560  -0.00290   0.00725   0.00070
C128      0.02320   0.02860   0.01510   0.00550   0.00870   0.00230
O131      0.02340   0.03260   0.02680   0.00000   0.01540   0.00380
N132      0.02180   0.02720   0.01510  -0.00260   0.00870   0.00000
C136      0.02040   0.02100   0.01630   0.00230   0.00960   0.00140
O137      0.02080   0.05320   0.01560   0.00290   0.00725  -0.00070
C138      0.02320   0.02860   0.01510  -0.00550   0.00870  -0.00230
O141      0.02340   0.03260   0.02680   0.00000   0.01540  -0.00380
N142      0.02180   0.02720   0.01510   0.00260   0.00870   0.00000
C146      0.02040   0.02100   0.01630  -0.00230   0.00960  -0.00140
O147      0.02080   0.05320   0.01560  -0.00290   0.00725   0.00070
C148      0.02320   0.02860   0.01510   0.00550   0.00870   0.00230
O151      0.02340   0.03260   0.02680   0.00000   0.01540   0.00380
N152      0.02180   0.02720   0.01510  -0.00260   0.00870   0.00000
C156      0.02040   0.02100   0.01630   0.00230   0.00960   0.00140
O157      0.02080   0.05320   0.01560   0.00290   0.00725  -0.00070
C158      0.02320   0.02860   0.01510  -0.00550   0.00870  -0.00230
loop_
_geom_bond_atom_site_label_1
_geom_bond_atom_site_label_2
_geom_bond_distance
_geom_bond_site_symmetry_2
_ccdc_geom_bond_type
O1     C6      1.253   .     S
N2     C8      1.475   .     S
N2     H3      0.901   .     S
N2     H4      0.884   .     S
N2     H5      0.895   .     S
C6     O7      1.253   .     S
C6     C8      1.528   .     S
C8     H9      0.947   .     S
C8     H10     0.965   .     S
O11    C16     1.253   .     S
N12    C18     1.475   .     S
N12    H13     0.901   .     S
N12    H14     0.884   .     S
N12    H15     0.895   .     S
C16    O17     1.253   .     S
C16    C18     1.528   .     S
C18    H19     0.947   .     S
C18    H20     0.965   .     S
O21    C26     1.253   .     S
N22    C28     1.475   .     S
N22    H23     0.901   .     S
N22    H24     0.884   .     S
N22    H25     0.895   .     S
C26    O27     1.253   .     S
C26    C28     1.528   .     S
C28    H29     0.947   .     S
C28    H30     0.965   .     S
O31    C36     1.253   .     S
N32    C38     1.475   .     S
N32    H33     0.901   .     S
N32    H34     0.884   .     S
N32    H35     0.895   .     S
C36    O37     1.253   .     S
C36    C38     1.528   .     S
C38    H39     0.947   .     S
C38    H40     0.965   .     S
O41    C46     1.253   .     S
N42    C48     1.475   .     S
N42    H43     0.901   .     S
N42    H44     0.884   .     S
N42    H45     0.895   .     S
C46    O47     1.253   .     S
C46    C48     1.528   .     S
C48    H49     0.947   .     S
C48    H50     0.965   .     S
O51    C56     1.253   .     S
N52    C58     1.475   .     S
N52    H53     0.901   .     S
N52    H54     0.884   .     S
N52    H55     0.895   .     S
C56    O57     1.253   .     S
C56    C58     1.528   .     S
C58    H59     0.947   .     S
C58    H60     0.965   .     S
O61    C66     1.253   .     S
N62    C68     1.475   .     S
N62    H63     0.901   .     S
N62    H64     0.884   .     S
N62    H65     0.895   .     S
C66    O67     1.253   .     S
C66    C68     1.528   .     S
C68    H69     0.947   .     S
C68    H70     0.965   .     S
O71    C76     1.253   .     S
N72    C78     1.475   .     S
N72    H73     0.901   .     S
N72    H74     0.884   .     S
N72    H75     0.895   .     S
C76    O77     1.253   .     S
C76    C78     1.528   .     S
C78    H79     0.947   .     S
C78    H80     0.965   .     S
O81    C86     1.253   .     S
N82    C88     1.475   .     S
N82    H83     0.901   .     S
N82    H84     0.884   .     S
N82    H85     0.895   .     S
C86    O87     1.253   .     S
C86    C88     1.528   .     S
C88    H89     0.947   .     S
C88    H90     0.965   .     S
O91    C96     1.253   .     S
N92    C98     1.475   .     S
N92    H93     0.901   .     S
N92    H94     0.884   .     S
N92    H95     0.895   .     S
C96    O97     1.253   .     S
C96    C98     1.528   .     S
C98    H99     0.947   .     S
C98    H100    0.965   .     S
O101   C106    1.253   .     S
N102   C108    1.475   .     S
N102   H103    0.901   .     S
N102   H104    0.884   .     S
N102   H105    0.895   .     S
C106   O107    1.253   .     S
C106   C108    1.528   .     S
C108   H109    0.947   .     S
C108   H110    0.965   .     S
O111   C116    1.253   .     S
N112   C118    1.475   .     S
N112   H113    0.901   .     S
N112   H114    0.884   .     S
N112   H115    0.895   .     S
C116   O117    1.253   .     S
C116   C118    1.528   .     S
C118   H119    0.947   .     S
C118   H120    0.965   .     S
O121   C126    1.253   .     S
N122   C128    1.475   .     S
N122   H123    0.901   .     S
N122   H124    0.884   .     S
N122   H125    0.895   .     S
C126   O127    1.253   .     S
C126   C128    1.528   .     S
C128   H129    0.947   .     S
C128   H130    0.965   .     S
O131   C136    1.253   .     S
N132   C138    1.475   .     S
N132   H133    0.901   .     S
N132   H134    0.884   .     S
N132   H135    0.895   .     S
C136   O137    1.253   .     S
C136   C138    1.528   .     S
C138   H139    0.947   .     S
C138   H140    0.965   .     S
O141   C146    1.253   .     S
N142   C148    1.475   .     S
N142   H143    0.901   .     S
N142   H144    0.884   .     S
N142   H145    0.895   .     S
C146   O147    1.253   .     S
C146   C148    1.528   .     S
C148   H149    0.947   .     S
C148   H150    0.965   .     S
O151   C156    1.253   .     S
N152   C158    1.475   .     S
N152   H153    0.901   .     S
N152   H154    0.884   .     S
N152   H155    0.895   .     S
C156   O157    1.253   .     S
C156   C158    1.528   .     S
C158   H159    0.947   .     S
C158   H160    0.965   .     S
