# generated using pymatgen
data_H9C8NO2
_symmetry_space_group_name_H-M   'P 1'
_cell_length_a   7.12492500
_cell_length_b   9.85962100
_cell_length_c   13.03458586
_cell_angle_alpha   90.00000000
_cell_angle_beta   116.40337924
_cell_angle_gamma   90.00000000
_symmetry_Int_Tables_number   1
_chemical_formula_structural   H9C8NO2
_chemical_formula_sum   'H36 C32 N4 O8'
_cell_volume   820.15004989
_cell_formula_units_Z   4
loop_
 _symmetry_equiv_pos_site_id
 _symmetry_equiv_pos_as_xyz
  1  'x, y, z'
loop_
 _atom_type_symbol
 _atom_type_oxidation_number
  H+  1.0
  C0.25-  -0.25
  N3-  -3.0
  O2-  -2.0
loop_
 _atom_site_type_symbol
 _atom_site_label
 _atom_site_symmetry_multiplicity
 _atom_site_fract_x
 _atom_site_fract_y
 _atom_site_fract_z
 _atom_site_occupancy
  H+  H0  1  0.62130700  0.58007700  0.99672700  1
  H+  H1  1  0.37869300  0.08007700  0.50327300  1
  H+  H2  1  0.37869300  0.41992300  0.00327300  1
  H+  H3  1  0.62130700  0.91992300  0.49672700  1
  H+  H4  1  0.75158700  0.73088200  0.16450600  1
  H+  H5  1  0.24841300  0.23088200  0.33549400  1
  H+  H6  1  0.24841300  0.26911800  0.83549400  1
  H+  H7  1  0.75158700  0.76911800  0.66450600  1
  H+  H8  1  0.21399600  0.89311900  0.06937000  1
  H+  H9  1  0.78600400  0.39311900  0.43063000  1
  H+  H10  1  0.78600400  0.10688100  0.93063000  1
  H+  H11  1  0.21399600  0.60688100  0.56937000  1
  H+  H12  1  0.08867100  0.73800800  0.90340000  1
  H+  H13  1  0.91132900  0.23800800  0.59660000  1
  H+  H14  1  0.91132900  0.26199200  0.09660000  1
  H+  H15  1  0.08867100  0.76199200  0.40340000  1
  H+  H16  1  0.19599500  0.94811600  0.24139500  1
  H+  H17  1  0.80400500  0.44811600  0.25860500  1
  H+  H18  1  0.80400500  0.05188400  0.75860500  1
  H+  H19  1  0.19599500  0.55188400  0.74139500  1
  H+  H20  1  0.88947000  0.55451300  0.80794100  1
  H+  H21  1  0.11053000  0.05451300  0.69205900  1
  H+  H22  1  0.11053000  0.44548700  0.19205900  1
  H+  H23  1  0.88947000  0.94548700  0.30794100  1
  H+  H24  1  0.43467500  0.42971800  0.60715600  1
  H+  H25  1  0.56532500  0.92971800  0.89284400  1
  H+  H26  1  0.56532500  0.57028200  0.39284400  1
  H+  H27  1  0.43467500  0.07028200  0.10715600  1
  H+  H28  1  0.71478300  0.42440900  0.66253600  1
  H+  H29  1  0.28521700  0.92440900  0.83746400  1
  H+  H30  1  0.28521700  0.57559100  0.33746400  1
  H+  H31  1  0.71478300  0.07559100  0.16253600  1
  H+  H32  1  0.57900000  0.30328600  0.70602600  1
  H+  H33  1  0.42100000  0.80328600  0.79397400  1
  H+  H34  1  0.42100000  0.69671400  0.29397400  1
  H+  H35  1  0.57900000  0.19671400  0.20602600  1
  C0.25-  C36  1  0.84462900  0.64868300  0.93719300  1
  C0.25-  C37  1  0.15537100  0.14868300  0.56280700  1
  C0.25-  C38  1  0.15537100  0.35131700  0.06280700  1
  C0.25-  C39  1  0.84462900  0.85131700  0.43719300  1
  C0.25-  C40  1  0.75071700  0.64807800  0.01173000  1
  C0.25-  C41  1  0.24928300  0.14807800  0.48827000  1
  C0.25-  C42  1  0.24928300  0.35192200  0.98827000  1
  C0.25-  C43  1  0.75071700  0.85192200  0.51173000  1
  C0.25-  C44  1  0.82361100  0.73454200  0.10620900  1
  C0.25-  C45  1  0.17638900  0.23454200  0.39379100  1
  C0.25-  C46  1  0.17638900  0.26545800  0.89379100  1
  C0.25-  C47  1  0.82361100  0.76545800  0.60620900  1
  C0.25-  C48  1  0.99039800  0.82372800  0.12813400  1
  C0.25-  C49  1  0.00960200  0.32372800  0.37186600  1
  C0.25-  C50  1  0.00960200  0.17627200  0.87186600  1
  C0.25-  C51  1  0.99039800  0.67627200  0.62813400  1
  C0.25-  C52  1  0.08512900  0.82378500  0.05408800  1
  C0.25-  C53  1  0.91487100  0.32378500  0.44591200  1
  C0.25-  C54  1  0.91487100  0.17621500  0.94591200  1
  C0.25-  C55  1  0.08512900  0.67621500  0.55408800  1
  C0.25-  C56  1  0.01331000  0.73692000  0.96019100  1
  C0.25-  C57  1  0.98669000  0.23692000  0.53980900  1
  C0.25-  C58  1  0.98669000  0.26308000  0.03980900  1
  C0.25-  C59  1  0.01331000  0.76308000  0.46019100  1
  C0.25-  C60  1  0.59734500  0.49865800  0.78114900  1
  C0.25-  C61  1  0.40265500  0.99865800  0.71885100  1
  C0.25-  C62  1  0.40265500  0.50134200  0.21885100  1
  C0.25-  C63  1  0.59734500  0.00134200  0.28114900  1
  C0.25-  C64  1  0.58294400  0.41032700  0.68334100  1
  C0.25-  C65  1  0.41705600  0.91032700  0.81665900  1
  C0.25-  C66  1  0.41705600  0.58967300  0.31665900  1
  C0.25-  C67  1  0.58294400  0.08967300  0.18334100  1
  N3-  N68  1  0.78339800  0.56220000  0.84097100  1
  N3-  N69  1  0.21660200  0.06220000  0.65902900  1
  N3-  N70  1  0.21660200  0.43780000  0.15902900  1
  N3-  N71  1  0.78339800  0.93780000  0.34097100  1
  O2-  O72  1  0.05395200  0.90833300  0.22085400  1
  O2-  O73  1  0.94604800  0.40833300  0.27914600  1
  O2-  O74  1  0.94604800  0.09166700  0.77914600  1
  O2-  O75  1  0.05395200  0.59166700  0.72085400  1
  O2-  O76  1  0.44638100  0.50973700  0.80559700  1
  O2-  O77  1  0.55361900  0.00973700  0.69440300  1
  O2-  O78  1  0.55361900  0.49026300  0.19440300  1
  O2-  O79  1  0.44638100  0.99026300  0.30559700  1
