data_Iso-phthalic\Acid
_audit_creation_date              2024-07-23
_audit_creation_method            'Materials Studio'
_symmetry_space_group_name_H-M    'P1'
_symmetry_Int_Tables_number       1
_symmetry_cell_setting            triclinic
loop_
_symmetry_equiv_pos_as_xyz
  x,y,z
_cell_length_a                    7.3650
_cell_length_b                    16.3666
_cell_length_c                    11.6128
_cell_angle_alpha                 90.0000
_cell_angle_beta                  90.7870
_cell_angle_gamma                 90.0000
loop_
_atom_site_label
_atom_site_type_symbol
_atom_site_fract_x
_atom_site_fract_y
_atom_site_fract_z
_atom_site_U_iso_or_equiv
_atom_site_adp_type
_atom_site_occupancy
O1     O     0.25735   0.58161   0.22004   0.01971  Uani   1.00
O2     O     0.27735   0.88344   0.24779   0.02010  Uani   1.00
O3     O     0.12565   0.51272   0.36304   0.02286  Uani   1.00
H4     H     0.15940   0.47320   0.32550   0.03400  Uiso   1.00
O5     O     0.14415   0.94677   0.39556   0.02241  Uani   1.00
H6     H     0.17555   0.98770   0.36040   0.03400  Uiso   1.00
C7     C     0.17815   0.73099   0.33071   0.01386  Uani   1.00
H8     H     0.23105   0.73380   0.25860   0.01700  Uiso   1.00
C9     C     0.13525   0.65573   0.37809   0.01401  Uani   1.00
C10    C     0.14165   0.80235   0.39166   0.01441  Uani   1.00
C11    C     0.05580   0.65156   0.48684   0.01550  Uani   1.00
H12    H     0.02730   0.60110   0.51860   0.01900  Uiso   1.00
C13    C     0.19365   0.88129   0.33838   0.01524  Uani   1.00
C14    C     0.06215   0.79852   0.50003   0.01567  Uani   1.00
H15    H     0.03775   0.84620   0.54050   0.01900  Uiso   1.00
C16    C     0.17820   0.58024   0.31252   0.01540  Uani   1.00
C17    C     0.01970   0.72279   0.54712   0.01669  Uani   1.00
H18    H    -0.03305   0.71990   0.61930   0.02000  Uiso   1.00
O19    O     0.24265   0.08161   0.27996   0.01971  Uani   1.00
O20    O     0.22265   0.38344   0.25221   0.02010  Uani   1.00
O21    O     0.37435   0.01272   0.13696   0.02286  Uani   1.00
H22    H     0.34060  -0.02680   0.17450   0.03400  Uiso   1.00
O23    O     0.35585   0.44677   0.10444   0.02241  Uani   1.00
H24    H     0.32445   0.48770   0.13960   0.03400  Uiso   1.00
C25    C     0.32185   0.23099   0.16929   0.01386  Uani   1.00
H26    H     0.26895   0.23380   0.24140   0.01700  Uiso   1.00
C27    C     0.36475   0.15573   0.12191   0.01401  Uani   1.00
C28    C     0.35835   0.30235   0.10834   0.01441  Uani   1.00
C29    C     0.44420   0.15156   0.01316   0.01550  Uani   1.00
H30    H     0.47270   0.10110  -0.01860   0.01900  Uiso   1.00
C31    C     0.30635   0.38129   0.16162   0.01524  Uani   1.00
C32    C     0.43785   0.29852  -0.00003   0.01567  Uani   1.00
H33    H     0.46225   0.34620  -0.04050   0.01900  Uiso   1.00
C34    C     0.32180   0.08024   0.18748   0.01540  Uani   1.00
C35    C     0.48030   0.22279  -0.04712   0.01669  Uani   1.00
H36    H     0.53305   0.21990  -0.11930   0.02000  Uiso   1.00
O37    O     0.24265   0.41839   0.77996   0.01971  Uani   1.00
O38    O     0.22265   0.11656   0.75221   0.02010  Uani   1.00
O39    O     0.37435   0.48728   0.63696   0.02286  Uani   1.00
H40    H     0.34060   0.52680   0.67450   0.03400  Uiso   1.00
O41    O     0.35585   0.05323   0.60444   0.02241  Uani   1.00
H42    H     0.32445   0.01230   0.63960   0.03400  Uiso   1.00
C43    C     0.32185   0.26901   0.66929   0.01386  Uani   1.00
H44    H     0.26895   0.26620   0.74140   0.01700  Uiso   1.00
C45    C     0.36475   0.34427   0.62191   0.01401  Uani   1.00
C46    C     0.35835   0.19765   0.60834   0.01441  Uani   1.00
C47    C     0.44420   0.34844   0.51316   0.01550  Uani   1.00
H48    H     0.47270   0.39890   0.48140   0.01900  Uiso   1.00
C49    C     0.30635   0.11871   0.66162   0.01524  Uani   1.00
C50    C     0.43785   0.20148   0.49997   0.01567  Uani   1.00
H51    H     0.46225   0.15380   0.45950   0.01900  Uiso   1.00
C52    C     0.32180   0.41976   0.68748   0.01540  Uani   1.00
C53    C     0.48030   0.27721   0.45288   0.01669  Uani   1.00
H54    H     0.53305   0.28010   0.38070   0.02000  Uiso   1.00
O55    O     0.25735   0.91839   0.72004   0.01971  Uani   1.00
O56    O     0.27735   0.61656   0.74779   0.02010  Uani   1.00
O57    O     0.12565   0.98728   0.86304   0.02286  Uani   1.00
H58    H     0.15940   1.02680   0.82550   0.03400  Uiso   1.00
O59    O     0.14415   0.55323   0.89556   0.02241  Uani   1.00
H60    H     0.17555   0.51230   0.86040   0.03400  Uiso   1.00
C61    C     0.17815   0.76901   0.83071   0.01386  Uani   1.00
H62    H     0.23105   0.76620   0.75860   0.01700  Uiso   1.00
C63    C     0.13525   0.84427   0.87809   0.01401  Uani   1.00
C64    C     0.14165   0.69765   0.89166   0.01441  Uani   1.00
C65    C     0.05580   0.84844   0.98684   0.01550  Uani   1.00
H66    H     0.02730   0.89890   1.01860   0.01900  Uiso   1.00
C67    C     0.19365   0.61871   0.83838   0.01524  Uani   1.00
C68    C     0.06215   0.70148   1.00003   0.01567  Uani   1.00
H69    H     0.03775   0.65380   1.04050   0.01900  Uiso   1.00
C70    C     0.17820   0.91976   0.81252   0.01540  Uani   1.00
C71    C     0.01970   0.77721   1.04712   0.01669  Uani   1.00
H72    H    -0.03305   0.78010   1.11930   0.02000  Uiso   1.00
O73    O     0.75735   0.58161   0.22004   0.01971  Uani   1.00
O74    O     0.77735   0.88344   0.24779   0.02010  Uani   1.00
O75    O     0.62565   0.51272   0.36304   0.02286  Uani   1.00
H76    H     0.65940   0.47320   0.32550   0.03400  Uiso   1.00
O77    O     0.64415   0.94677   0.39556   0.02241  Uani   1.00
H78    H     0.67555   0.98770   0.36040   0.03400  Uiso   1.00
C79    C     0.67815   0.73099   0.33071   0.01386  Uani   1.00
H80    H     0.73105   0.73380   0.25860   0.01700  Uiso   1.00
C81    C     0.63525   0.65573   0.37809   0.01401  Uani   1.00
C82    C     0.64165   0.80235   0.39166   0.01441  Uani   1.00
C83    C     0.55580   0.65156   0.48684   0.01550  Uani   1.00
H84    H     0.52730   0.60110   0.51860   0.01900  Uiso   1.00
C85    C     0.69365   0.88129   0.33838   0.01524  Uani   1.00
C86    C     0.56215   0.79852   0.50003   0.01567  Uani   1.00
H87    H     0.53775   0.84620   0.54050   0.01900  Uiso   1.00
C88    C     0.67820   0.58024   0.31252   0.01540  Uani   1.00
C89    C     0.51970   0.72279   0.54712   0.01669  Uani   1.00
H90    H     0.46695   0.71990   0.61930   0.02000  Uiso   1.00
O91    O     0.74265   0.08161   0.27996   0.01971  Uani   1.00
O92    O     0.72265   0.38344   0.25221   0.02010  Uani   1.00
O93    O     0.87435   0.01272   0.13696   0.02286  Uani   1.00
H94    H     0.84060  -0.02680   0.17450   0.03400  Uiso   1.00
O95    O     0.85585   0.44677   0.10444   0.02241  Uani   1.00
H96    H     0.82445   0.48770   0.13960   0.03400  Uiso   1.00
C97    C     0.82185   0.23099   0.16929   0.01386  Uani   1.00
H98    H     0.76895   0.23380   0.24140   0.01700  Uiso   1.00
C99    C     0.86475   0.15573   0.12191   0.01401  Uani   1.00
C100   C     0.85835   0.30235   0.10834   0.01441  Uani   1.00
C101   C     0.94420   0.15156   0.01316   0.01550  Uani   1.00
H102   H     0.97270   0.10110  -0.01860   0.01900  Uiso   1.00
C103   C     0.80635   0.38129   0.16162   0.01524  Uani   1.00
C104   C     0.93785   0.29852  -0.00003   0.01567  Uani   1.00
H105   H     0.96225   0.34620  -0.04050   0.01900  Uiso   1.00
C106   C     0.82180   0.08024   0.18748   0.01540  Uani   1.00
C107   C     0.98030   0.22279  -0.04712   0.01669  Uani   1.00
H108   H     1.03305   0.21990  -0.11930   0.02000  Uiso   1.00
O109   O     0.74265   0.41839   0.77996   0.01971  Uani   1.00
O110   O     0.72265   0.11656   0.75221   0.02010  Uani   1.00
O111   O     0.87435   0.48728   0.63696   0.02286  Uani   1.00
H112   H     0.84060   0.52680   0.67450   0.03400  Uiso   1.00
O113   O     0.85585   0.05323   0.60444   0.02241  Uani   1.00
H114   H     0.82445   0.01230   0.63960   0.03400  Uiso   1.00
C115   C     0.82185   0.26901   0.66929   0.01386  Uani   1.00
H116   H     0.76895   0.26620   0.74140   0.01700  Uiso   1.00
C117   C     0.86475   0.34427   0.62191   0.01401  Uani   1.00
C118   C     0.85835   0.19765   0.60834   0.01441  Uani   1.00
C119   C     0.94420   0.34844   0.51316   0.01550  Uani   1.00
H120   H     0.97270   0.39890   0.48140   0.01900  Uiso   1.00
C121   C     0.80635   0.11871   0.66162   0.01524  Uani   1.00
C122   C     0.93785   0.20148   0.49997   0.01567  Uani   1.00
H123   H     0.96225   0.15380   0.45950   0.01900  Uiso   1.00
C124   C     0.82180   0.41976   0.68748   0.01540  Uani   1.00
C125   C     0.98030   0.27721   0.45288   0.01669  Uani   1.00
H126   H     1.03305   0.28010   0.38070   0.02000  Uiso   1.00
O127   O     0.75735   0.91839   0.72004   0.01971  Uani   1.00
O128   O     0.77735   0.61656   0.74779   0.02010  Uani   1.00
O129   O     0.62565   0.98728   0.86304   0.02286  Uani   1.00
H130   H     0.65940   1.02680   0.82550   0.03400  Uiso   1.00
O131   O     0.64415   0.55323   0.89556   0.02241  Uani   1.00
H132   H     0.67555   0.51230   0.86040   0.03400  Uiso   1.00
C133   C     0.67815   0.76901   0.83071   0.01386  Uani   1.00
H134   H     0.73105   0.76620   0.75860   0.01700  Uiso   1.00
C135   C     0.63525   0.84427   0.87809   0.01401  Uani   1.00
C136   C     0.64165   0.69765   0.89166   0.01441  Uani   1.00
C137   C     0.55580   0.84844   0.98684   0.01550  Uani   1.00
H138   H     0.52730   0.89890   1.01860   0.01900  Uiso   1.00
C139   C     0.69365   0.61871   0.83838   0.01524  Uani   1.00
C140   C     0.56215   0.70148   1.00003   0.01567  Uani   1.00
H141   H     0.53775   0.65380   1.04050   0.01900  Uiso   1.00
C142   C     0.67820   0.91976   0.81252   0.01540  Uani   1.00
C143   C     0.51970   0.77721   1.04712   0.01669  Uani   1.00
H144   H     0.46695   0.78010   1.11930   0.02000  Uiso   1.00
loop_
_atom_site_aniso_label
_atom_site_aniso_U_11
_atom_site_aniso_U_22
_atom_site_aniso_U_33
_atom_site_aniso_U_12
_atom_site_aniso_U_13
_atom_site_aniso_U_23
O1        0.02770   0.01360   0.01800   0.00060   0.00660   0.00040
O2        0.02790   0.01350   0.01910  -0.00090   0.00750   0.00020
O3        0.03490   0.01050   0.02350  -0.00060   0.01250   0.00010
O5        0.03270   0.01090   0.02390  -0.00070   0.01030  -0.00230
C7        0.01380   0.01540   0.01240  -0.00010   0.00090   0.00040
C9        0.01350   0.01320   0.01530   0.00010  -0.00070  -0.00060
C10       0.01380   0.01360   0.01580   0.00020  -0.00070  -0.00010
C11       0.01540   0.01500   0.01610  -0.00130  -0.00010   0.00290
C13       0.01640   0.01300   0.01630   0.00000  -0.00050  -0.00210
C14       0.01500   0.01620   0.01580   0.00020  -0.00010  -0.00250
C16       0.01600   0.01370   0.01650   0.00040   0.00040   0.00090
C17       0.01610   0.02120   0.01280   0.00000   0.00160   0.00060
O19       0.02770   0.01360   0.01800  -0.00060   0.00660  -0.00040
O20       0.02790   0.01350   0.01910   0.00090   0.00750  -0.00020
O21       0.03490   0.01050   0.02350   0.00060   0.01250  -0.00010
O23       0.03270   0.01090   0.02390   0.00070   0.01030   0.00230
C25       0.01380   0.01540   0.01240   0.00010   0.00090  -0.00040
C27       0.01350   0.01320   0.01530  -0.00010  -0.00070   0.00060
C28       0.01380   0.01360   0.01580  -0.00020  -0.00070   0.00010
C29       0.01540   0.01500   0.01610   0.00130  -0.00010  -0.00290
C31       0.01640   0.01300   0.01630   0.00000  -0.00050   0.00210
C32       0.01500   0.01620   0.01580  -0.00020  -0.00010   0.00250
C34       0.01600   0.01370   0.01650  -0.00040   0.00040  -0.00090
C35       0.01610   0.02120   0.01280   0.00000   0.00160  -0.00060
O37       0.02770   0.01360   0.01800   0.00060   0.00660   0.00040
O38       0.02790   0.01350   0.01910  -0.00090   0.00750   0.00020
O39       0.03490   0.01050   0.02350  -0.00060   0.01250   0.00010
O41       0.03270   0.01090   0.02390  -0.00070   0.01030  -0.00230
C43       0.01380   0.01540   0.01240  -0.00010   0.00090   0.00040
C45       0.01350   0.01320   0.01530   0.00010  -0.00070  -0.00060
C46       0.01380   0.01360   0.01580   0.00020  -0.00070  -0.00010
C47       0.01540   0.01500   0.01610  -0.00130  -0.00010   0.00290
C49       0.01640   0.01300   0.01630   0.00000  -0.00050  -0.00210
C50       0.01500   0.01620   0.01580   0.00020  -0.00010  -0.00250
C52       0.01600   0.01370   0.01650   0.00040   0.00040   0.00090
C53       0.01610   0.02120   0.01280   0.00000   0.00160   0.00060
O55       0.02770   0.01360   0.01800  -0.00060   0.00660  -0.00040
O56       0.02790   0.01350   0.01910   0.00090   0.00750  -0.00020
O57       0.03490   0.01050   0.02350   0.00060   0.01250  -0.00010
O59       0.03270   0.01090   0.02390   0.00070   0.01030   0.00230
C61       0.01380   0.01540   0.01240   0.00010   0.00090  -0.00040
C63       0.01350   0.01320   0.01530  -0.00010  -0.00070   0.00060
C64       0.01380   0.01360   0.01580  -0.00020  -0.00070   0.00010
C65       0.01540   0.01500   0.01610   0.00130  -0.00010  -0.00290
C67       0.01640   0.01300   0.01630   0.00000  -0.00050   0.00210
C68       0.01500   0.01620   0.01580  -0.00020  -0.00010   0.00250
C70       0.01600   0.01370   0.01650  -0.00040   0.00040  -0.00090
C71       0.01610   0.02120   0.01280   0.00000   0.00160  -0.00060
O73       0.02770   0.01360   0.01800   0.00060   0.00660   0.00040
O74       0.02790   0.01350   0.01910  -0.00090   0.00750   0.00020
O75       0.03490   0.01050   0.02350  -0.00060   0.01250   0.00010
O77       0.03270   0.01090   0.02390  -0.00070   0.01030  -0.00230
C79       0.01380   0.01540   0.01240  -0.00010   0.00090   0.00040
C81       0.01350   0.01320   0.01530   0.00010  -0.00070  -0.00060
C82       0.01380   0.01360   0.01580   0.00020  -0.00070  -0.00010
C83       0.01540   0.01500   0.01610  -0.00130  -0.00010   0.00290
C85       0.01640   0.01300   0.01630   0.00000  -0.00050  -0.00210
C86       0.01500   0.01620   0.01580   0.00020  -0.00010  -0.00250
C88       0.01600   0.01370   0.01650   0.00040   0.00040   0.00090
C89       0.01610   0.02120   0.01280   0.00000   0.00160   0.00060
O91       0.02770   0.01360   0.01800  -0.00060   0.00660  -0.00040
O92       0.02790   0.01350   0.01910   0.00090   0.00750  -0.00020
O93       0.03490   0.01050   0.02350   0.00060   0.01250  -0.00010
O95       0.03270   0.01090   0.02390   0.00070   0.01030   0.00230
C97       0.01380   0.01540   0.01240   0.00010   0.00090  -0.00040
C99       0.01350   0.01320   0.01530  -0.00010  -0.00070   0.00060
C100      0.01380   0.01360   0.01580  -0.00020  -0.00070   0.00010
C101      0.01540   0.01500   0.01610   0.00130  -0.00010  -0.00290
C103      0.01640   0.01300   0.01630   0.00000  -0.00050   0.00210
C104      0.01500   0.01620   0.01580  -0.00020  -0.00010   0.00250
C106      0.01600   0.01370   0.01650  -0.00040   0.00040  -0.00090
C107      0.01610   0.02120   0.01280   0.00000   0.00160  -0.00060
O109      0.02770   0.01360   0.01800   0.00060   0.00660   0.00040
O110      0.02790   0.01350   0.01910  -0.00090   0.00750   0.00020
O111      0.03490   0.01050   0.02350  -0.00060   0.01250   0.00010
O113      0.03270   0.01090   0.02390  -0.00070   0.01030  -0.00230
C115      0.01380   0.01540   0.01240  -0.00010   0.00090   0.00040
C117      0.01350   0.01320   0.01530   0.00010  -0.00070  -0.00060
C118      0.01380   0.01360   0.01580   0.00020  -0.00070  -0.00010
C119      0.01540   0.01500   0.01610  -0.00130  -0.00010   0.00290
C121      0.01640   0.01300   0.01630   0.00000  -0.00050  -0.00210
C122      0.01500   0.01620   0.01580   0.00020  -0.00010  -0.00250
C124      0.01600   0.01370   0.01650   0.00040   0.00040   0.00090
C125      0.01610   0.02120   0.01280   0.00000   0.00160   0.00060
O127      0.02770   0.01360   0.01800  -0.00060   0.00660  -0.00040
O128      0.02790   0.01350   0.01910   0.00090   0.00750  -0.00020
O129      0.03490   0.01050   0.02350   0.00060   0.01250  -0.00010
O131      0.03270   0.01090   0.02390   0.00070   0.01030   0.00230
C133      0.01380   0.01540   0.01240   0.00010   0.00090  -0.00040
C135      0.01350   0.01320   0.01530  -0.00010  -0.00070   0.00060
C136      0.01380   0.01360   0.01580  -0.00020  -0.00070   0.00010
C137      0.01540   0.01500   0.01610   0.00130  -0.00010  -0.00290
C139      0.01640   0.01300   0.01630   0.00000  -0.00050   0.00210
C140      0.01500   0.01620   0.01580  -0.00020  -0.00010   0.00250
C142      0.01600   0.01370   0.01650  -0.00040   0.00040  -0.00090
C143      0.01610   0.02120   0.01280   0.00000   0.00160  -0.00060
loop_
_geom_bond_atom_site_label_1
_geom_bond_atom_site_label_2
_geom_bond_distance
_geom_bond_site_symmetry_2
_ccdc_geom_bond_type
O1     C16     1.229   .     S
O2     C13     1.227   .     S
O3     H4      0.820   .     S
O3     C16     1.312   .     S
O5     H6      0.819   .     S
O5     C13     1.315   .     S
C7     H8      0.930   .     S
C7     C9      1.387   .     S
C7     C10     1.394   .     S
C9     C11     1.401   .     S
C9     C16     1.488   .     S
C10    C13     1.485   .     S
C10    C14     1.397   .     S
C11    H12     0.930   .     S
C11    C17     1.387   .     S
C14    H15     0.930   .     S
C14    C17     1.392   .     S
C17    H18     0.930   .     S
O19    C34     1.229   .     S
O20    C31     1.227   .     S
O21    H22     0.820   .     S
O21    C34     1.312   .     S
O23    H24     0.819   .     S
O23    C31     1.315   .     S
C25    H26     0.930   .     S
C25    C27     1.387   .     S
C25    C28     1.394   .     S
C27    C29     1.401   .     S
C27    C34     1.488   .     S
C28    C31     1.485   .     S
C28    C32     1.397   .     S
C29    H30     0.930   .     S
C29    C35     1.387   .     S
C32    H33     0.930   .     S
C32    C35     1.392   .     S
C35    H36     0.930   .     S
O37    C52     1.229   .     S
O38    C49     1.227   .     S
O39    H40     0.820   .     S
O39    C52     1.312   .     S
O41    H42     0.819   .     S
O41    C49     1.315   .     S
C43    H44     0.930   .     S
C43    C45     1.387   .     S
C43    C46     1.394   .     S
C45    C47     1.401   .     S
C45    C52     1.488   .     S
C46    C49     1.485   .     S
C46    C50     1.397   .     S
C47    H48     0.930   .     S
C47    C53     1.387   .     S
C50    H51     0.930   .     S
C50    C53     1.392   .     S
C53    H54     0.930   .     S
O55    C70     1.229   .     S
O56    C67     1.227   .     S
O57    H58     0.820   .     S
O57    C70     1.312   .     S
O59    H60     0.819   .     S
O59    C67     1.315   .     S
C61    H62     0.930   .     S
C61    C63     1.387   .     S
C61    C64     1.394   .     S
C63    C65     1.401   .     S
C63    C70     1.488   .     S
C64    C67     1.485   .     S
C64    C68     1.397   .     S
C65    H66     0.930   .     S
C65    C71     1.387   .     S
C68    H69     0.930   .     S
C68    C71     1.392   .     S
C71    H72     0.930   .     S
O73    C88     1.229   .     S
O74    C85     1.227   .     S
O75    H76     0.820   .     S
O75    C88     1.312   .     S
O77    H78     0.819   .     S
O77    C85     1.315   .     S
C79    H80     0.930   .     S
C79    C81     1.387   .     S
C79    C82     1.394   .     S
C81    C83     1.401   .     S
C81    C88     1.488   .     S
C82    C85     1.485   .     S
C82    C86     1.397   .     S
C83    H84     0.930   .     S
C83    C89     1.387   .     S
C86    H87     0.930   .     S
C86    C89     1.392   .     S
C89    H90     0.930   .     S
O91    C106    1.229   .     S
O92    C103    1.227   .     S
O93    H94     0.820   .     S
O93    C106    1.312   .     S
O95    H96     0.819   .     S
O95    C103    1.315   .     S
C97    H98     0.930   .     S
C97    C99     1.387   .     S
C97    C100    1.394   .     S
C99    C101    1.401   .     S
C99    C106    1.488   .     S
C100   C103    1.485   .     S
C100   C104    1.397   .     S
C101   H102    0.930   .     S
C101   C107    1.387   .     S
C104   H105    0.930   .     S
C104   C107    1.392   .     S
C107   H108    0.930   .     S
O109   C124    1.229   .     S
O110   C121    1.227   .     S
O111   H112    0.820   .     S
O111   C124    1.312   .     S
O113   H114    0.819   .     S
O113   C121    1.315   .     S
C115   H116    0.930   .     S
C115   C117    1.387   .     S
C115   C118    1.394   .     S
C117   C119    1.401   .     S
C117   C124    1.488   .     S
C118   C121    1.485   .     S
C118   C122    1.397   .     S
C119   H120    0.930   .     S
C119   C125    1.387   .     S
C122   H123    0.930   .     S
C122   C125    1.392   .     S
C125   H126    0.930   .     S
O127   C142    1.229   .     S
O128   C139    1.227   .     S
O129   H130    0.820   .     S
O129   C142    1.312   .     S
O131   H132    0.819   .     S
O131   C139    1.315   .     S
C133   H134    0.930   .     S
C133   C135    1.387   .     S
C133   C136    1.394   .     S
C135   C137    1.401   .     S
C135   C142    1.488   .     S
C136   C139    1.485   .     S
C136   C140    1.397   .     S
C137   H138    0.930   .     S
C137   C143    1.387   .     S
C140   H141    0.930   .     S
C140   C143    1.392   .     S
C143   H144    0.930   .     S
