data_131762
_audit_creation_date              2024-07-23
_audit_creation_method            'Materials Studio'
_symmetry_space_group_name_H-M    'P1'
_symmetry_Int_Tables_number       1
_symmetry_cell_setting            triclinic
loop_
_symmetry_equiv_pos_as_xyz
  x,y,z
_cell_length_a                    11.1780
_cell_length_b                    11.1780
_cell_length_c                    9.3894
_cell_angle_alpha                 90.0000
_cell_angle_beta                  90.0000
_cell_angle_gamma                 90.0000
loop_
_atom_site_label
_atom_site_type_symbol
_atom_site_fract_x
_atom_site_fract_y
_atom_site_fract_z
_atom_site_U_iso_or_equiv
_atom_site_adp_type
_atom_site_occupancy
C1     C     0.00000   0.25000   0.16415   0.00000  Uiso   1.00
O2     O     0.00000   0.25000   0.29815   0.00000  Uiso   1.00
C3     C     0.25000   0.00000   0.33585   0.00000  Uiso   1.00
O4     O     0.25000   0.00000   0.20185   0.00000  Uiso   1.00
N5     N     0.07235   0.32235   0.08920   0.00000  Uiso   1.00
H6     H     0.12760   0.37760   0.14225   0.00000  Uiso   1.00
H7     H     0.07140   0.32140   0.48305   0.00000  Uiso   1.00
N8     N     0.42765   0.17765   0.08920   0.00000  Uiso   1.00
H9     H     0.37240   0.12240   0.14225   0.00000  Uiso   1.00
H10    H     0.42860   0.17860   0.48305   0.00000  Uiso   1.00
N11    N     0.32235   0.42765   0.41080   0.00000  Uiso   1.00
H12    H     0.37760   0.37240   0.35775   0.00000  Uiso   1.00
H13    H     0.32140   0.42860   0.01695   0.00000  Uiso   1.00
N14    N     0.17765   0.07235   0.41080   0.00000  Uiso   1.00
H15    H     0.12240   0.12760   0.35775   0.00000  Uiso   1.00
H16    H     0.17860   0.07140   0.01695   0.00000  Uiso   1.00
C17    C     0.50000   0.25000   0.16415   0.00000  Uiso   1.00
O18    O     0.50000   0.25000   0.29815   0.00000  Uiso   1.00
C19    C     0.75000   0.00000   0.33585   0.00000  Uiso   1.00
O20    O     0.75000   0.00000   0.20185   0.00000  Uiso   1.00
N21    N     0.57235   0.32235   0.08920   0.00000  Uiso   1.00
H22    H     0.62760   0.37760   0.14225   0.00000  Uiso   1.00
H23    H     0.57140   0.32140   0.48305   0.00000  Uiso   1.00
N24    N     0.92765   0.17765   0.08920   0.00000  Uiso   1.00
H25    H     0.87240   0.12240   0.14225   0.00000  Uiso   1.00
H26    H     0.92860   0.17860   0.48305   0.00000  Uiso   1.00
N27    N     0.82235   0.42765   0.41080   0.00000  Uiso   1.00
H28    H     0.87760   0.37240   0.35775   0.00000  Uiso   1.00
H29    H     0.82140   0.42860   0.01695   0.00000  Uiso   1.00
N30    N     0.67765   0.07235   0.41080   0.00000  Uiso   1.00
H31    H     0.62240   0.12760   0.35775   0.00000  Uiso   1.00
H32    H     0.67860   0.07140   0.01695   0.00000  Uiso   1.00
C33    C     0.00000   0.75000   0.16415   0.00000  Uiso   1.00
O34    O     0.00000   0.75000   0.29815   0.00000  Uiso   1.00
C35    C     0.25000   0.50000   0.33585   0.00000  Uiso   1.00
O36    O     0.25000   0.50000   0.20185   0.00000  Uiso   1.00
N37    N     0.07235   0.82235   0.08920   0.00000  Uiso   1.00
H38    H     0.12760   0.87760   0.14225   0.00000  Uiso   1.00
H39    H     0.07140   0.82140   0.48305   0.00000  Uiso   1.00
N40    N     0.42765   0.67765   0.08920   0.00000  Uiso   1.00
H41    H     0.37240   0.62240   0.14225   0.00000  Uiso   1.00
H42    H     0.42860   0.67860   0.48305   0.00000  Uiso   1.00
N43    N     0.32235   0.92765   0.41080   0.00000  Uiso   1.00
H44    H     0.37760   0.87240   0.35775   0.00000  Uiso   1.00
H45    H     0.32140   0.92860   0.01695   0.00000  Uiso   1.00
N46    N     0.17765   0.57235   0.41080   0.00000  Uiso   1.00
H47    H     0.12240   0.62760   0.35775   0.00000  Uiso   1.00
H48    H     0.17860   0.57140   0.01695   0.00000  Uiso   1.00
C49    C     0.50000   0.75000   0.16415   0.00000  Uiso   1.00
O50    O     0.50000   0.75000   0.29815   0.00000  Uiso   1.00
C51    C     0.75000   0.50000   0.33585   0.00000  Uiso   1.00
O52    O     0.75000   0.50000   0.20185   0.00000  Uiso   1.00
N53    N     0.57235   0.82235   0.08920   0.00000  Uiso   1.00
H54    H     0.62760   0.87760   0.14225   0.00000  Uiso   1.00
H55    H     0.57140   0.82140   0.48305   0.00000  Uiso   1.00
N56    N     0.92765   0.67765   0.08920   0.00000  Uiso   1.00
H57    H     0.87240   0.62240   0.14225   0.00000  Uiso   1.00
H58    H     0.92860   0.67860   0.48305   0.00000  Uiso   1.00
N59    N     0.82235   0.92765   0.41080   0.00000  Uiso   1.00
H60    H     0.87760   0.87240   0.35775   0.00000  Uiso   1.00
H61    H     0.82140   0.92860   0.01695   0.00000  Uiso   1.00
N62    N     0.67765   0.57235   0.41080   0.00000  Uiso   1.00
H63    H     0.62240   0.62760   0.35775   0.00000  Uiso   1.00
H64    H     0.67860   0.57140   0.01695   0.00000  Uiso   1.00
C65    C     0.00000   0.25000   0.66415   0.00000  Uiso   1.00
O66    O     0.00000   0.25000   0.79815   0.00000  Uiso   1.00
C67    C     0.25000   0.00000   0.83585   0.00000  Uiso   1.00
O68    O     0.25000   0.00000   0.70185   0.00000  Uiso   1.00
N69    N     0.07235   0.32235   0.58920   0.00000  Uiso   1.00
H70    H     0.12760   0.37760   0.64225   0.00000  Uiso   1.00
H71    H     0.07140   0.32140   0.98305   0.00000  Uiso   1.00
N72    N     0.42765   0.17765   0.58920   0.00000  Uiso   1.00
H73    H     0.37240   0.12240   0.64225   0.00000  Uiso   1.00
H74    H     0.42860   0.17860   0.98305   0.00000  Uiso   1.00
N75    N     0.32235   0.42765   0.91080   0.00000  Uiso   1.00
H76    H     0.37760   0.37240   0.85775   0.00000  Uiso   1.00
H77    H     0.32140   0.42860   0.51695   0.00000  Uiso   1.00
N78    N     0.17765   0.07235   0.91080   0.00000  Uiso   1.00
H79    H     0.12240   0.12760   0.85775   0.00000  Uiso   1.00
H80    H     0.17860   0.07140   0.51695   0.00000  Uiso   1.00
C81    C     0.50000   0.25000   0.66415   0.00000  Uiso   1.00
O82    O     0.50000   0.25000   0.79815   0.00000  Uiso   1.00
C83    C     0.75000   0.00000   0.83585   0.00000  Uiso   1.00
O84    O     0.75000   0.00000   0.70185   0.00000  Uiso   1.00
N85    N     0.57235   0.32235   0.58920   0.00000  Uiso   1.00
H86    H     0.62760   0.37760   0.64225   0.00000  Uiso   1.00
H87    H     0.57140   0.32140   0.98305   0.00000  Uiso   1.00
N88    N     0.92765   0.17765   0.58920   0.00000  Uiso   1.00
H89    H     0.87240   0.12240   0.64225   0.00000  Uiso   1.00
H90    H     0.92860   0.17860   0.98305   0.00000  Uiso   1.00
N91    N     0.82235   0.42765   0.91080   0.00000  Uiso   1.00
H92    H     0.87760   0.37240   0.85775   0.00000  Uiso   1.00
H93    H     0.82140   0.42860   0.51695   0.00000  Uiso   1.00
N94    N     0.67765   0.07235   0.91080   0.00000  Uiso   1.00
H95    H     0.62240   0.12760   0.85775   0.00000  Uiso   1.00
H96    H     0.67860   0.07140   0.51695   0.00000  Uiso   1.00
C97    C     0.00000   0.75000   0.66415   0.00000  Uiso   1.00
O98    O     0.00000   0.75000   0.79815   0.00000  Uiso   1.00
C99    C     0.25000   0.50000   0.83585   0.00000  Uiso   1.00
O100   O     0.25000   0.50000   0.70185   0.00000  Uiso   1.00
N101   N     0.07235   0.82235   0.58920   0.00000  Uiso   1.00
H102   H     0.12760   0.87760   0.64225   0.00000  Uiso   1.00
H103   H     0.07140   0.82140   0.98305   0.00000  Uiso   1.00
N104   N     0.42765   0.67765   0.58920   0.00000  Uiso   1.00
H105   H     0.37240   0.62240   0.64225   0.00000  Uiso   1.00
H106   H     0.42860   0.67860   0.98305   0.00000  Uiso   1.00
N107   N     0.32235   0.92765   0.91080   0.00000  Uiso   1.00
H108   H     0.37760   0.87240   0.85775   0.00000  Uiso   1.00
H109   H     0.32140   0.92860   0.51695   0.00000  Uiso   1.00
N110   N     0.17765   0.57235   0.91080   0.00000  Uiso   1.00
H111   H     0.12240   0.62760   0.85775   0.00000  Uiso   1.00
H112   H     0.17860   0.57140   0.51695   0.00000  Uiso   1.00
C113   C     0.50000   0.75000   0.66415   0.00000  Uiso   1.00
O114   O     0.50000   0.75000   0.79815   0.00000  Uiso   1.00
C115   C     0.75000   0.50000   0.83585   0.00000  Uiso   1.00
O116   O     0.75000   0.50000   0.70185   0.00000  Uiso   1.00
N117   N     0.57235   0.82235   0.58920   0.00000  Uiso   1.00
H118   H     0.62760   0.87760   0.64225   0.00000  Uiso   1.00
H119   H     0.57140   0.82140   0.98305   0.00000  Uiso   1.00
N120   N     0.92765   0.67765   0.58920   0.00000  Uiso   1.00
H121   H     0.87240   0.62240   0.64225   0.00000  Uiso   1.00
H122   H     0.92860   0.67860   0.98305   0.00000  Uiso   1.00
N123   N     0.82235   0.92765   0.91080   0.00000  Uiso   1.00
H124   H     0.87760   0.87240   0.85775   0.00000  Uiso   1.00
H125   H     0.82140   0.92860   0.51695   0.00000  Uiso   1.00
N126   N     0.67765   0.57235   0.91080   0.00000  Uiso   1.00
H127   H     0.62240   0.62760   0.85775   0.00000  Uiso   1.00
H128   H     0.67860   0.57140   0.51695   0.00000  Uiso   1.00
